data_str_m4_o1_o1_f0_acs.sym.10
_audit_creation_date              2013-03-05T15:45:22-0500
_audit_creation_method            fapswitch 2.2
_symmetry_space_group_name_H-M    P1
_symmetry_Int_Tables_number       1
_space_group_crystal_system       triclinic
_cell_length_a                    10.947998
_cell_length_b                    10.948054
_cell_length_c                    18.784561
_cell_angle_alpha                 89.997224
_cell_angle_beta                  90.001658
_cell_angle_gamma                 119.99953
_cell_volume                      1949.86874627

loop_
_atom_site_label
_atom_site_type_symbol
_atom_site_description
_atom_site_fract_x
_atom_site_fract_y
_atom_site_fract_z
_atom_type_partial_charge
O1    O     O_R   0.916700 0.566820 0.669930 -0.470145
O2    O     O_R   0.650120 0.083300 0.830070 -0.470148
O3    O     O_R   0.433180 0.349880 0.669930 -0.469555
O4    O     O_R   0.916700 0.566820 0.830070 -0.470173
O5    O     O_R   0.650120 0.083300 0.669930 -0.470075
O6    O     O_R   0.433180 0.349880 0.830070 -0.470205
O7    O     O_R   0.566820 0.916700 0.169930 -0.464909
O8    O     O_R   0.083300 0.650120 0.330070 -0.465004
O9    O     O_R   0.349880 0.433180 0.169930 -0.464908
O10   O     O_R   0.566820 0.916700 0.330070 -0.464876
O11   O     O_R   0.083300 0.650120 0.169930 -0.464908
O12   O     O_R   0.349880 0.433180 0.330070 -0.464689
O13   O     O_R   0.649840 0.534790 0.674920 -0.457826
O14   O     O_R   0.884950 0.350160 0.825080 -0.457678
O15   O     O_R   0.465210 0.115050 0.674920 -0.457968
O16   O     O_R   0.649840 0.534790 0.825080 -0.457690
O17   O     O_R   0.884950 0.350160 0.674920 -0.457687
O18   O     O_R   0.465210 0.115050 0.825080 -0.457754
O19   O     O_R   0.534790 0.649840 0.174920 -0.474827
O20   O     O_R   0.350160 0.884950 0.325080 -0.474901
O21   O     O_R   0.115050 0.465210 0.174920 -0.474829
O22   O     O_R   0.534790 0.649840 0.325080 -0.474866
O23   O     O_R   0.350160 0.884950 0.174920 -0.474808
O24   O     O_R   0.115050 0.465210 0.325080 -0.474881
C1    C     C_R   0.528382 0.471176 0.647505 0.550417
C2    C     C_R   0.942756 0.471612 0.852504 0.550298
C3    C     C_R   0.528869 0.057247 0.647498 0.550097
C4    C     C_R   0.528386 0.471140 0.852503 0.550282
C5    C     C_R   0.942753 0.471611 0.647495 0.550293
C6    C     C_R   0.528857 0.057241 0.852503 0.550283
C7    C     C_R   0.464237 0.530691 0.144543 0.589885
C8    C     C_R   0.469302 0.933514 0.355461 0.589903
C9    C     C_R   0.066449 0.535763 0.144544 0.589886
C10   C     C_R   0.464191 0.530726 0.355481 0.589854
C11   C     C_R   0.469311 0.933549 0.144543 0.589902
C12   C     C_R   0.066453 0.535764 0.355456 0.589864
Cr1   Cr    Cr6+3 0.776430 0.541680 0.750000 1.193022
Cr2   Cr    Cr6+3 0.765250 0.223570 0.750000 1.193078
Cr3   Cr    Cr6+3 0.458320 0.234750 0.750000 1.193049
Cr4   Cr    Cr6+3 0.541680 0.776430 0.250000 1.184666
Cr5   Cr    Cr6+3 0.223570 0.765250 0.250000 1.184577
Cr6   Cr    Cr6+3 0.234750 0.458320 0.250000 1.184723
O25   O     O_3   0.666667 0.333333 0.750000 -0.328569
O26   O     O_3   0.333333 0.666667 0.250000 -0.361886
C13   C     C_R   0.381560 0.012377 0.537593 0.154393
C14   C     C_R   0.630835 0.618644 0.962386 0.154083
C15   C     C_R   0.987759 0.369140 0.537607 0.154002
C16   C     C_R   0.381347 0.012181 0.962383 0.154087
C17   C     C_R   0.630885 0.618677 0.537626 0.154030
C18   C     C_R   0.987803 0.369160 0.962392 0.154075
C19   C     C_R   0.990998 0.378892 0.037270 0.153875
C20   C     C_R   0.621079 0.612089 0.462751 0.153957
C21   C     C_R   0.387882 0.008987 0.037261 0.153863
C22   C     C_R   0.990974 0.378891 0.462731 0.153817
C23   C     C_R   0.621105 0.612114 0.037264 0.153866
C24   C     C_R   0.387956 0.009027 0.462728 0.153868
C25   C     C_R   0.477625 0.966821 0.430913 -0.014847
C26   C     C_R   0.489248 0.522372 0.069087 -0.014775
C27   C     C_R   0.033125 0.510759 0.430912 -0.014773
C28   C     C_R   0.477626 0.966874 0.069086 -0.014777
C29   C     C_R   0.489135 0.522539 0.430964 -0.014806
C30   C     C_R   0.033115 0.510751 0.069088 -0.014767
C31   C     C_R   0.011494 0.488566 0.921508 -0.037476
C32   C     C_R   0.511441 0.523148 0.578540 -0.037323
C33   C     C_R   0.477070 0.988497 0.921505 -0.037471
C34   C     C_R   0.011487 0.488554 0.578491 -0.037622
C35   C     C_R   0.511430 0.522921 0.921506 -0.037462
C36   C     C_R   0.477140 0.988547 0.578490 -0.037717
C37   C     C_R   0.553475 0.922677 0.473540 -0.138322
C38   C     C_R   0.369266 0.446476 0.026469 -0.138364
C39   C     C_R   0.077244 0.630745 0.473531 -0.138258
C40   C     C_R   0.553517 0.922781 0.026470 -0.138363
C41   C     C_R   0.369115 0.447083 0.473619 -0.138165
C42   C     C_R   0.077209 0.630732 0.026467 -0.138358
C43   C     C_R   0.068293 0.619900 0.953646 -0.146752
C44   C     C_R   0.380016 0.449037 0.546452 -0.146167
C45   C     C_R   0.551608 0.931700 0.953649 -0.146753
C46   C     C_R   0.068332 0.619896 0.546353 -0.146775
C47   C     C_R   0.380097 0.448382 0.953648 -0.146748
C48   C     C_R   0.551578 0.931623 0.546365 -0.146702
N1    N     N_R   0.280806 0.041198 0.571582 0.123706
O27   O     O_R   0.204201 0.962668 0.624098 -0.279264
O28   O     O_R   0.259975 0.141083 0.548375 -0.236161
N2    N     N_R   0.760202 0.719889 0.928364 0.123002
O29   O     O_R   0.881264 0.742258 0.951865 -0.234904
O30   O     O_R   0.757672 0.795022 0.875306 -0.279879
N3    N     N_R   0.959581 0.239744 0.571619 0.123058
O31   O     O_R   0.860907 0.118706 0.548088 -0.234933
O32   O     O_R   0.037227 0.242216 0.624671 -0.279658
N4    N     N_R   0.280098 0.040301 0.928360 0.123004
O33   O     O_R   0.257721 0.138987 0.951859 -0.234893
O34   O     O_R   0.204973 0.962645 0.875302 -0.279967
N5    N     N_R   0.760331 0.719843 0.571613 0.122990
O35   O     O_R   0.881333 0.742175 0.548041 -0.234886
O36   O     O_R   0.757940 0.795056 0.624663 -0.279692
N6    N     N_R   0.959679 0.239790 0.928376 0.122998
O37   O     O_R   0.860991 0.118732 0.951881 -0.234909
O38   O     O_R   0.037337 0.242315 0.875321 -0.279869
N7    N     N_R   0.950739 0.256381 0.080675 0.108437
O39   O     O_R   0.014366 0.183515 0.074042 -0.198217
O40   O     O_R   0.854624 0.221434 0.129527 -0.269726
N8    N     N_R   0.743591 0.694143 0.419319 0.108459
O41   O     O_R   0.816490 0.830658 0.425834 -0.198290
O42   O     O_R   0.778429 0.632789 0.370521 -0.269848
N9    N     N_R   0.305628 0.049247 0.080660 0.108434
O43   O     O_R   0.169135 0.985621 0.074023 -0.198211
O44   O     O_R   0.366794 0.145365 0.129510 -0.269707
N10   N     N_R   0.950745 0.256392 0.419328 0.108470
O45   O     O_R   0.014449 0.183594 0.425945 -0.198013
O46   O     O_R   0.854612 0.221416 0.370480 -0.269674
N11   N     N_R   0.743618 0.694369 0.080665 0.108429
O47   O     O_R   0.816490 0.830860 0.074020 -0.198211
O48   O     O_R   0.778568 0.633207 0.129521 -0.269720
N12   N     N_R   0.305580 0.049182 0.419347 0.108206
O49   O     O_R   0.169208 0.986408 0.426517 -0.197586
O50   O     O_R   0.366515 0.144830 0.370256 -0.269383
H1    H     H_    0.614583 0.879848 0.450618 0.207597
H2    H     H_    0.265343 0.385313 0.049395 0.207735
H3    H     H_    0.120014 0.734684 0.450606 0.207565
H4    H     H_    0.614680 0.880020 0.049399 0.207736
H5    H     H_    0.265142 0.386206 0.450706 0.207086
H6    H     H_    0.119972 0.734656 0.049390 0.207732
H7    H     H_    0.096324 0.713278 0.922583 0.226470
H8    H     H_    0.286614 0.383997 0.577561 0.226077
H9    H     H_    0.616959 0.903674 0.922592 0.226473
H10   H     H_    0.096397 0.713265 0.577420 0.226437
H11   H     H_    0.286719 0.383030 0.922589 0.226479
H12   H     H_    0.616873 0.903531 0.577436 0.226333

loop_
_geom_bond_atom_site_label_1
_geom_bond_atom_site_label_2
_geom_bond_distance
_ccdc_geom_bond_type
O16   C4    1.261920 A    
N3    O31   1.298807 A    
C36   C48   1.387308 A    
N5    O35   1.298797 A    
O24   Cr6   1.952198 S    
N11   O47   1.301103 A    
O18   Cr3   1.952125 S    
C12   C27   1.455059 S    
O19   C7    1.271339 A    
N1    O27   1.301790 A    
C24   C25   1.409990 A    
N9    O44   1.301222 A    
C20   N8    1.437602 S    
O9    Cr6   2.067314 S    
O24   C12   1.271347 A    
C43   H7    1.079800 S    
C7    C26   1.455099 S    
N2    O30   1.301308 A    
C20   C29   1.410043 A    
O21   C9    1.271317 A    
C28   C40   1.401902 A    
O17   C5    1.261890 A    
N10   O45   1.301115 A    
O10   Cr4   2.067332 S    
O8    C12   1.264077 A    
O12   Cr6   2.067240 S    
C3    C36   1.463182 S    
O5    C3    1.281565 A    
O15   C3    1.261990 A    
O6    C4    1.281695 A    
C13   C24   1.409437 A    
C9    C30   1.455091 S    
N6    O38   1.301307 A    
C14   C23   1.409692 A    
O7    Cr4   2.067237 S    
O18   C6    1.261902 A    
C16   C33   1.423699 A    
C15   C34   1.423699 A    
O13   Cr1   1.952142 S    
O1    Cr1   2.067303 S    
O16   Cr1   1.952194 S    
O3    Cr3   2.067232 S    
N5    O36   1.301313 A    
C17   C32   1.423682 A    
C16   N4    1.439830 S    
O5    Cr2   2.067316 S    
C18   C31   1.423689 A    
O13   C1    1.261869 A    
C19   C30   1.410060 A    
Cr6   O26   1.976353 S    
C8    C25   1.454967 S    
O20   Cr5   1.952194 S    
N1    O28   1.298926 A    
C21   C28   1.410050 A    
N12   O49   1.301329 A    
C22   C27   1.410040 A    
C19   N7    1.437633 S    
C16   C21   1.409685 A    
O22   C10   1.271276 A    
O4    C2    1.281687 A    
C33   C45   1.387265 A    
C42   C43   1.372295 A    
C44   H8    1.079827 S    
O11   C9    1.264113 A    
C4    C35   1.463298 S    
C35   C47   1.387271 A    
N2    O29   1.298809 A    
C26   C38   1.401903 A    
Cr3   O25   1.976343 S    
C48   H12   1.079837 S    
C29   C41   1.401969 A    
C10   C29   1.455162 S    
O14   C2    1.261929 A    
C5    C34   1.463308 S    
C14   C35   1.423698 A    
C11   C28   1.455083 S    
C1    C32   1.463510 S    
C15   N3    1.439845 S    
Cr1   O25   1.976352 S    
C2    C31   1.463291 S    
C40   C45   1.372289 A    
C21   N9    1.437634 S    
O14   Cr2   1.952198 S    
O2    Cr2   2.067259 S    
N4    O34   1.301309 A    
N7    O39   1.301102 A    
O3    C1    1.281851 A    
C17   C20   1.409675 A    
O22   Cr4   1.952127 S    
N6    O37   1.298808 A    
C40   H4    1.080041 S    
C13   C36   1.423425 A    
O1    C5    1.281719 A    
C18   C19   1.409688 A    
C32   C44   1.387264 A    
N11   O48   1.301222 A    
O8    Cr5   2.067273 S    
N8    O42   1.301227 A    
O15   Cr3   1.952221 S    
C15   C22   1.409663 A    
C14   N2    1.439826 S    
C34   C46   1.387260 A    
C42   H6    1.080043 S    
C41   H5    1.080066 S    
N3    O32   1.301311 A    
C41   C44   1.372563 A    
O12   C10   1.264152 A    
C46   H10   1.079746 S    
C45   H9    1.079802 S    
O20   C8    1.271312 A    
C47   H11   1.079801 S    
C23   N11   1.437635 S    
C38   C47   1.372294 A    
O7    C11   1.264101 A    
C13   N1    1.439456 S    
N12   O50   1.301288 A    
C22   N10   1.437620 S    
N9    O43   1.301104 A    
O23   C11   1.271328 A    
O23   Cr5   1.952162 S    
C39   H3    1.080156 S    
O2    C6    1.281690 A    
C25   C37   1.401991 A    
Cr2   O25   1.976334 S    
C18   N6    1.439828 S    
N4    O33   1.298811 A    
C31   C43   1.387274 A    
C38   H2    1.080044 S    
C37   H1    1.080075 S    
Cr5   O26   1.976334 S    
N10   O46   1.301238 A    
O11   Cr5   2.067298 S    
O17   Cr2   1.952157 S    
N8    O41   1.301115 A    
C6    C33   1.463285 S    
O19   Cr4   1.952222 S    
O9    C7    1.264112 A    
O21   Cr6   1.952139 S    
O10   C8    1.264028 A    
Cr4   O26   1.976343 S    
O4    Cr1   2.067256 S    
C23   C26   1.410055 A    
C24   N12   1.437721 S    
O6    Cr3   2.067331 S    
C30   C42   1.401892 A    
C37   C48   1.372396 A    
C17   N5    1.439831 S    
N7    O40   1.301222 A    
C39   C46   1.372325 A    
C27   C39   1.401933 A    
